output/1_TAP2_1/Cargas_BT_DU10_1_TAP2_1.dss
New "Load.BT_15168_0_M1" bus1="UC15168.1.4" phases=1 conn=delta model=2 kv=0.22 kw = 0.7556097402298357 pf=0.92 status=variable vmaxpu=1.5 vminpu=0.92 daily="RES_2_DU" 
New "Load.BT_15168_0_M2" bus1="UC15168.1.4" phases=1 conn=delta model=3 kv=0.22 kw = 0.7556097402298357 pf=0.92 status=variable vmaxpu=1.5 vminpu=0.92 daily="RES_2_DU"
 
New "Load.BT_15169_1_M1" bus1="UC15169.1.2.3.4" phases=3 conn=delta model=2 kv=0.38 kw = 0.5931659524279819 pf=0.92 status=variable vmaxpu=1.5 vminpu=0.92 daily="RES_2_DU" 
New "Load.BT_15169_1_M2" bus1="UC15169.1.2.3.4" phases=3 conn=delta model=3 kv=0.38 kw = 0.5931659524279819 pf=0.92 status=variable vmaxpu=1.5 vminpu=0.92 daily="RES_2_DU"
 
New "Load.BT_15174_4_M1" bus1="UC15174.1.4" phases=1 conn=delta model=2 kv=0.22 kw = 0.48920770210508374 pf=0.92 status=variable vmaxpu=1.5 vminpu=0.92 daily="RES_10_DU" 
New "Load.BT_15174_4_M2" bus1="UC15174.1.4" phases=1 conn=delta model=3 kv=0.22 kw = 0.48920770210508374 pf=0.92 status=variable vmaxpu=1.5 vminpu=0.92 daily="RES_10_DU"
 
New "Load.BT_13788_5_M1" bus1="UC13788.3.4" phases=1 conn=delta model=2 kv=0.22 kw = 0.29781361097006553 pf=0.92 status=variable vmaxpu=1.5 vminpu=0.92 daily="RES_2_DU" 
New "Load.BT_13788_5_M2" bus1="UC13788.3.4" phases=1 conn=delta model=3 kv=0.22 kw = 0.29781361097006553 pf=0.92 status=variable vmaxpu=1.5 vminpu=0.92 daily="RES_2_DU"
 
New "Load.BT_15175_6_M1" bus1="UC15175.1.2.3.4" phases=3 conn=delta model=2 kv=0.38 kw = 0.920514797543839 pf=0.92 status=variable vmaxpu=1.5 vminpu=0.92 daily="RES_2_DU" 
New "Load.BT_15175_6_M2" bus1="UC15175.1.2.3.4" phases=3 conn=delta model=3 kv=0.38 kw = 0.920514797543839 pf=0.92 status=variable vmaxpu=1.5 vminpu=0.92 daily="RES_2_DU"
 
New "Load.BT_10794_8_M1" bus1="ET1_159.2.3.4" phases=2 conn=delta model=2 kv=0.38 kw = 0.5558893486971943 pf=0.92 status=variable vmaxpu=1.5 vminpu=0.92 daily="RES_3_DU" 
New "Load.BT_10794_8_M2" bus1="ET1_159.2.3.4" phases=2 conn=delta model=3 kv=0.38 kw = 0.5558893486971943 pf=0.92 status=variable vmaxpu=1.5 vminpu=0.92 daily="RES_3_DU"
 
New "Load.BT_15178_9_M1" bus1="UC15178.3.4" phases=1 conn=delta model=2 kv=0.22 kw = 0.7404921899865603 pf=0.92 status=variable vmaxpu=1.5 vminpu=0.92 daily="RES_1_DU" 
New "Load.BT_15178_9_M2" bus1="UC15178.3.4" phases=1 conn=delta model=3 kv=0.22 kw = 0.7404921899865603 pf=0.92 status=variable vmaxpu=1.5 vminpu=0.92 daily="RES_1_DU"
 
New "Load.BT_15180_11_M1" bus1="UC15180.1.4" phases=1 conn=delta model=2 kv=0.22 kw = 0.37411296584669396 pf=0.92 status=variable vmaxpu=1.5 vminpu=0.92 daily="RES_2_DU" 
New "Load.BT_15180_11_M2" bus1="UC15180.1.4" phases=1 conn=delta model=3 kv=0.22 kw = 0.37411296584669396 pf=0.92 status=variable vmaxpu=1.5 vminpu=0.92 daily="RES_2_DU"
 
New "Load.BT_15581_15_M1" bus1="UC15581.1.2.3.4" phases=3 conn=delta model=2 kv=0.38 kw = 0.2882389215466934 pf=0.92 status=variable vmaxpu=1.5 vminpu=0.92 daily="RES_3_DU" 
New "Load.BT_15581_15_M2" bus1="UC15581.1.2.3.4" phases=3 conn=delta model=3 kv=0.38 kw = 0.2882389215466934 pf=0.92 status=variable vmaxpu=1.5 vminpu=0.92 daily="RES_3_DU"
 
New "Load.BT_15838_16_M1" bus1="UC15838.3.4" phases=1 conn=delta model=2 kv=0.22 kw = 0.0 pf=0.92 status=variable vmaxpu=1.5 vminpu=0.92 daily="RES_7_DU" 
New "Load.BT_15838_16_M2" bus1="UC15838.3.4" phases=1 conn=delta model=3 kv=0.22 kw = 0.0 pf=0.92 status=variable vmaxpu=1.5 vminpu=0.92 daily="RES_7_DU"
 
New "Load.BT_14653_19_M1" bus1="UC14653.1.2.3.4" phases=3 conn=delta model=2 kv=0.38 kw = 0.012867808997620241 pf=0.92 status=variable vmaxpu=1.5 vminpu=0.92 daily="RES_3_DU" 
New "Load.BT_14653_19_M2" bus1="UC14653.1.2.3.4" phases=3 conn=delta model=3 kv=0.38 kw = 0.012867808997620241 pf=0.92 status=variable vmaxpu=1.5 vminpu=0.92 daily="RES_3_DU"
 
New "Load.BT_10919_21_M1" bus1="UC10919.3.4" phases=1 conn=delta model=2 kv=0.22 kw = 0.2547826181528808 pf=0.92 status=variable vmaxpu=1.5 vminpu=0.92 daily="RES_3_DU" 
New "Load.BT_10919_21_M2" bus1="UC10919.3.4" phases=1 conn=delta model=3 kv=0.22 kw = 0.2547826181528808 pf=0.92 status=variable vmaxpu=1.5 vminpu=0.92 daily="RES_3_DU"
 
New "Load.BT_16152_22_M1" bus1="UC16152.1.4" phases=1 conn=delta model=2 kv=0.22 kw = 0.01601699597028093 pf=0.92 status=variable vmaxpu=1.5 vminpu=0.92 daily="RES_7_DU" 
New "Load.BT_16152_22_M2" bus1="UC16152.1.4" phases=1 conn=delta model=3 kv=0.22 kw = 0.01601699597028093 pf=0.92 status=variable vmaxpu=1.5 vminpu=0.92 daily="RES_7_DU"
 
New "Load.BT_2530_24_M1" bus1="UC2530.1.4" phases=1 conn=delta model=2 kv=0.22 kw = 0.22389987655859217 pf=0.92 status=variable vmaxpu=1.5 vminpu=0.92 daily="RES_3_DU" 
New "Load.BT_2530_24_M2" bus1="UC2530.1.4" phases=1 conn=delta model=3 kv=0.22 kw = 0.22389987655859217 pf=0.92 status=variable vmaxpu=1.5 vminpu=0.92 daily="RES_3_DU"
 
New "Load.BT_16140_25_M1" bus1="UC16140.1.2.3.4" phases=3 conn=delta model=2 kv=0.38 kw = 4.274686149009444 pf=0.92 status=variable vmaxpu=1.5 vminpu=0.92 daily="RES_3_DU" 
New "Load.BT_16140_25_M2" bus1="UC16140.1.2.3.4" phases=3 conn=delta model=3 kv=0.38 kw = 4.274686149009444 pf=0.92 status=variable vmaxpu=1.5 vminpu=0.92 daily="RES_3_DU"
 
New "Load.BT_16156_26_M1" bus1="UC16156.3.4" phases=1 conn=delta model=2 kv=0.22 kw = 0.006406798388112373 pf=0.92 status=variable vmaxpu=1.5 vminpu=0.92 daily="RES_7_DU" 
New "Load.BT_16156_26_M2" bus1="UC16156.3.4" phases=1 conn=delta model=3 kv=0.22 kw = 0.006406798388112373 pf=0.92 status=variable vmaxpu=1.5 vminpu=0.92 daily="RES_7_DU"
 
New "Load.BT_16132_28_M1" bus1="UC16132.3.4" phases=1 conn=delta model=2 kv=0.22 kw = 0.0435017834703605 pf=0.92 status=variable vmaxpu=1.5 vminpu=0.92 daily="COM_5_DU" 
New "Load.BT_16132_28_M2" bus1="UC16132.3.4" phases=1 conn=delta model=3 kv=0.22 kw = 0.0435017834703605 pf=0.92 status=variable vmaxpu=1.5 vminpu=0.92 daily="COM_5_DU"
 
New "Load.BT_8216_30_M1" bus1="UC8216.3.4" phases=1 conn=delta model=2 kv=0.22 kw = 0.9419236186258017 pf=0.92 status=variable vmaxpu=1.5 vminpu=0.92 daily="RES_3_DU" 
New "Load.BT_8216_30_M2" bus1="UC8216.3.4" phases=1 conn=delta model=3 kv=0.22 kw = 0.9419236186258017 pf=0.92 status=variable vmaxpu=1.5 vminpu=0.92 daily="RES_3_DU"
 
New "Load.BT_16139_33_M1" bus1="UC16139.2.4" phases=1 conn=delta model=2 kv=0.22 kw = 0.38346070812908317 pf=0.92 status=variable vmaxpu=1.5 vminpu=0.92 daily="RES_3_DU" 
New "Load.BT_16139_33_M2" bus1="UC16139.2.4" phases=1 conn=delta model=3 kv=0.22 kw = 0.38346070812908317 pf=0.92 status=variable vmaxpu=1.5 vminpu=0.92 daily="RES_3_DU"
 
New "Load.BT_16135_34_M1" bus1="UC16135.3.4" phases=1 conn=delta model=2 kv=0.22 kw = 0.2419148091552605 pf=0.92 status=variable vmaxpu=1.5 vminpu=0.92 daily="RES_3_DU" 
New "Load.BT_16135_34_M2" bus1="UC16135.3.4" phases=1 conn=delta model=3 kv=0.22 kw = 0.2419148091552605 pf=0.92 status=variable vmaxpu=1.5 vminpu=0.92 daily="RES_3_DU"
 
New "Load.BT_16138_35_M1" bus1="UC16138.3.4" phases=1 conn=delta model=2 kv=0.22 kw = 0.01831654040857284 pf=0.92 status=variable vmaxpu=1.5 vminpu=0.92 daily="COM_5_DU" 
New "Load.BT_16138_35_M2" bus1="UC16138.3.4" phases=1 conn=delta model=3 kv=0.22 kw = 0.01831654040857284 pf=0.92 status=variable vmaxpu=1.5 vminpu=0.92 daily="COM_5_DU"
 
New "Load.BT_8555_36_M1" bus1="UC8555.3.4" phases=1 conn=delta model=2 kv=0.22 kw = 0.4889767419095692 pf=0.92 status=variable vmaxpu=1.5 vminpu=0.92 daily="RES_3_DU" 
New "Load.BT_8555_36_M2" bus1="UC8555.3.4" phases=1 conn=delta model=3 kv=0.22 kw = 0.4889767419095692 pf=0.92 status=variable vmaxpu=1.5 vminpu=0.92 daily="RES_3_DU"
 
New "Load.BT_15362_38_M1" bus1="UC15362.2.3.4" phases=2 conn=delta model=2 kv=0.38 kw = 0.009610197582168557 pf=0.92 status=variable vmaxpu=1.5 vminpu=0.92 daily="RES_7_DU" 
New "Load.BT_15362_38_M2" bus1="UC15362.2.3.4" phases=2 conn=delta model=3 kv=0.38 kw = 0.009610197582168557 pf=0.92 status=variable vmaxpu=1.5 vminpu=0.92 daily="RES_7_DU"
 
New "Load.BT_5102_39_M1" bus1="UC5102.1.4" phases=1 conn=delta model=2 kv=0.22 kw = 0.22647343835811626 pf=0.92 status=variable vmaxpu=1.5 vminpu=0.92 daily="RES_3_DU" 
New "Load.BT_5102_39_M2" bus1="UC5102.1.4" phases=1 conn=delta model=3 kv=0.22 kw = 0.22647343835811626 pf=0.92 status=variable vmaxpu=1.5 vminpu=0.92 daily="RES_3_DU"
 
New "Load.BT_7753_40_M1" bus1="UC7753.1.4" phases=1 conn=delta model=2 kv=0.22 kw = 0.06639745898107655 pf=0.92 status=variable vmaxpu=1.5 vminpu=0.92 daily="COM_5_DU" 
New "Load.BT_7753_40_M2" bus1="UC7753.1.4" phases=1 conn=delta model=3 kv=0.22 kw = 0.06639745898107655 pf=0.92 status=variable vmaxpu=1.5 vminpu=0.92 daily="COM_5_DU"
 
New "Load.BT_12439_42_M1" bus1="UC12439.3.4" phases=1 conn=delta model=2 kv=0.22 kw = 0.14669302257287076 pf=0.92 status=variable vmaxpu=1.5 vminpu=0.92 daily="RES_3_DU" 
New "Load.BT_12439_42_M2" bus1="UC12439.3.4" phases=1 conn=delta model=3 kv=0.22 kw = 0.14669302257287076 pf=0.92 status=variable vmaxpu=1.5 vminpu=0.92 daily="RES_3_DU"
 
New "Load.BT_9732_43_M1" bus1="UC9732.1.4" phases=1 conn=delta model=2 kv=0.22 kw = 0.09106697194952419 pf=0.92 status=variable vmaxpu=1.5 vminpu=0.92 daily="RES_2_DU" 
New "Load.BT_9732_43_M2" bus1="UC9732.1.4" phases=1 conn=delta model=3 kv=0.22 kw = 0.09106697194952419 pf=0.92 status=variable vmaxpu=1.5 vminpu=0.92 daily="RES_2_DU"
 
New "Load.BT_1855_44_M1" bus1="UC1855.1.4" phases=1 conn=delta model=2 kv=0.22 kw = 0.42579962560182927 pf=0.92 status=variable vmaxpu=1.5 vminpu=0.92 daily="RES_2_DU" 
New "Load.BT_1855_44_M2" bus1="UC1855.1.4" phases=1 conn=delta model=3 kv=0.22 kw = 0.42579962560182927 pf=0.92 status=variable vmaxpu=1.5 vminpu=0.92 daily="RES_2_DU"
 
New "Load.BT_1136_45_M1" bus1="UC1136.2.4" phases=1 conn=delta model=2 kv=0.22 kw = 0.30752632262939383 pf=0.92 status=variable vmaxpu=1.5 vminpu=0.92 daily="RES_7_DU" 
New "Load.BT_1136_45_M2" bus1="UC1136.2.4" phases=1 conn=delta model=3 kv=0.22 kw = 0.30752632262939383 pf=0.92 status=variable vmaxpu=1.5 vminpu=0.92 daily="RES_7_DU"
 
New "Load.BT_9732_46_M1" bus1="UC9732.2.4" phases=1 conn=delta model=2 kv=0.22 kw = 0.09356554778119071 pf=0.92 status=variable vmaxpu=1.5 vminpu=0.92 daily="RES_9_DU" 
New "Load.BT_9732_46_M2" bus1="UC9732.2.4" phases=1 conn=delta model=3 kv=0.22 kw = 0.09356554778119071 pf=0.92 status=variable vmaxpu=1.5 vminpu=0.92 daily="RES_9_DU"
 
New "Load.BT_15851_48_M1" bus1="UC15851.3.4" phases=1 conn=delta model=2 kv=0.22 kw = 0.06406798388112372 pf=0.92 status=variable vmaxpu=1.5 vminpu=0.92 daily="RES_7_DU" 
New "Load.BT_15851_48_M2" bus1="UC15851.3.4" phases=1 conn=delta model=3 kv=0.22 kw = 0.06406798388112372 pf=0.92 status=variable vmaxpu=1.5 vminpu=0.92 daily="RES_7_DU"
 
New "Load.BT_15850_49_M1" bus1="UC15850.3.1.4" phases=2 conn=delta model=2 kv=0.38 kw = 0.029300050682921453 pf=0.92 status=variable vmaxpu=1.5 vminpu=0.92 daily="RES_1_DU" 
New "Load.BT_15850_49_M2" bus1="UC15850.3.1.4" phases=2 conn=delta model=3 kv=0.38 kw = 0.029300050682921453 pf=0.92 status=variable vmaxpu=1.5 vminpu=0.92 daily="RES_1_DU"
 
New "Load.BT_15688_53_M1" bus1="UC15688.1.4" phases=1 conn=delta model=2 kv=0.22 kw = 0.028309179794764532 pf=0.92 status=variable vmaxpu=1.5 vminpu=0.92 daily="RES_3_DU" 
New "Load.BT_15688_53_M2" bus1="UC15688.1.4" phases=1 conn=delta model=3 kv=0.22 kw = 0.028309179794764532 pf=0.92 status=variable vmaxpu=1.5 vminpu=0.92 daily="RES_3_DU"
 
New "Load.BT_10153_54_M1" bus1="UC10153.2.4" phases=1 conn=delta model=2 kv=0.22 kw = 0.6047870228881512 pf=0.92 status=variable vmaxpu=1.5 vminpu=0.92 daily="RES_3_DU" 
New "Load.BT_10153_54_M2" bus1="UC10153.2.4" phases=1 conn=delta model=3 kv=0.22 kw = 0.6047870228881512 pf=0.92 status=variable vmaxpu=1.5 vminpu=0.92 daily="RES_3_DU"
 
New "Load.BT_15497_56_M1" bus1="UC15497.1.4" phases=1 conn=delta model=2 kv=0.22 kw = 0.5316342146242492 pf=0.92 status=variable vmaxpu=1.5 vminpu=0.92 daily="RES_2_DU" 
New "Load.BT_15497_56_M2" bus1="UC15497.1.4" phases=1 conn=delta model=3 kv=0.22 kw = 0.5316342146242492 pf=0.92 status=variable vmaxpu=1.5 vminpu=0.92 daily="RES_2_DU"
 
New "Load.BT_15497_57_M1" bus1="UC15497.3.4" phases=1 conn=delta model=2 kv=0.22 kw = 0.051686659755135346 pf=0.92 status=variable vmaxpu=1.5 vminpu=0.92 daily="RES_2_DU" 
New "Load.BT_15497_57_M2" bus1="UC15497.3.4" phases=1 conn=delta model=3 kv=0.22 kw = 0.051686659755135346 pf=0.92 status=variable vmaxpu=1.5 vminpu=0.92 daily="RES_2_DU"
 
New "Load.BT_5544_59_M1" bus1="UC5544.2.4" phases=1 conn=delta model=2 kv=0.22 kw = 0.5144053280392041 pf=0.92 status=variable vmaxpu=1.5 vminpu=0.92 daily="RES_2_DU" 
New "Load.BT_5544_59_M2" bus1="UC5544.2.4" phases=1 conn=delta model=3 kv=0.22 kw = 0.5144053280392041 pf=0.92 status=variable vmaxpu=1.5 vminpu=0.92 daily="RES_2_DU"
 
New "Load.BT_15499_60_M1" bus1="UC15499.3.4" phases=1 conn=delta model=2 kv=0.22 kw = 0.32981011462800647 pf=0.92 status=variable vmaxpu=1.5 vminpu=0.92 daily="RES_2_DU" 
New "Load.BT_15499_60_M2" bus1="UC15499.3.4" phases=1 conn=delta model=3 kv=0.22 kw = 0.32981011462800647 pf=0.92 status=variable vmaxpu=1.5 vminpu=0.92 daily="RES_2_DU"
 
New "Load.BT_8603_62_M1" bus1="UC8603.1.2.3.4" phases=3 conn=delta model=2 kv=0.38 kw = 0.709716415900749 pf=0.92 status=variable vmaxpu=1.5 vminpu=0.92 daily="COM_1_DU" 
New "Load.BT_8603_62_M2" bus1="UC8603.1.2.3.4" phases=3 conn=delta model=3 kv=0.38 kw = 0.709716415900749 pf=0.92 status=variable vmaxpu=1.5 vminpu=0.92 daily="COM_1_DU"
 
New "Load.BT_15509_63_M1" bus1="UC15509.1.2.4" phases=2 conn=delta model=2 kv=0.38 kw = 0.01230634756074651 pf=0.92 status=variable vmaxpu=1.5 vminpu=0.92 daily="RES_2_DU" 
New "Load.BT_15509_63_M2" bus1="UC15509.1.2.4" phases=2 conn=delta model=3 kv=0.38 kw = 0.01230634756074651 pf=0.92 status=variable vmaxpu=1.5 vminpu=0.92 daily="RES_2_DU"
 
New "Load.BT_15510_65_M1" bus1="UC15510.1.2.3.4" phases=3 conn=delta model=2 kv=0.38 kw = 0.4411750693437088 pf=0.92 status=variable vmaxpu=1.5 vminpu=0.92 daily="COM_1_DU" 
New "Load.BT_15510_65_M2" bus1="UC15510.1.2.3.4" phases=3 conn=delta model=3 kv=0.38 kw = 0.4411750693437088 pf=0.92 status=variable vmaxpu=1.5 vminpu=0.92 daily="COM_1_DU"
 
New "Load.BT_6671_66_M1" bus1="UC6671.1.4" phases=1 conn=delta model=2 kv=0.22 kw = 0.18213394389904838 pf=0.92 status=variable vmaxpu=1.5 vminpu=0.92 daily="RES_2_DU" 
New "Load.BT_6671_66_M2" bus1="UC6671.1.4" phases=1 conn=delta model=3 kv=0.22 kw = 0.18213394389904838 pf=0.92 status=variable vmaxpu=1.5 vminpu=0.92 daily="RES_2_DU"
 
New "Load.BT_9626_67_M1" bus1="UC9626.3.4" phases=1 conn=delta model=2 kv=0.22 kw = 0.3051974195065134 pf=0.92 status=variable vmaxpu=1.5 vminpu=0.92 daily="RES_2_DU" 
New "Load.BT_9626_67_M2" bus1="UC9626.3.4" phases=1 conn=delta model=3 kv=0.22 kw = 0.3051974195065134 pf=0.92 status=variable vmaxpu=1.5 vminpu=0.92 daily="RES_2_DU"
 
New "Load.BT_13002_68_M1" bus1="UC13002.3.4" phases=1 conn=delta model=2 kv=0.22 kw = 0.046702842879485236 pf=0.92 status=variable vmaxpu=1.5 vminpu=0.92 daily="COM_1_DU" 
New "Load.BT_13002_68_M2" bus1="UC13002.3.4" phases=1 conn=delta model=3 kv=0.22 kw = 0.046702842879485236 pf=0.92 status=variable vmaxpu=1.5 vminpu=0.92 daily="COM_1_DU"
 
New "Load.BT_13331_69_M1" bus1="UC13331.1.4" phases=1 conn=delta model=2 kv=0.22 kw = 0.00984507804859721 pf=0.92 status=variable vmaxpu=1.5 vminpu=0.92 daily="RES_2_DU" 
New "Load.BT_13331_69_M2" bus1="UC13331.1.4" phases=1 conn=delta model=3 kv=0.22 kw = 0.00984507804859721 pf=0.92 status=variable vmaxpu=1.5 vminpu=0.92 daily="RES_2_DU"
 
New "Load.BT_14890_70_M1" bus1="UC14890.1.2.3.4" phases=3 conn=delta model=2 kv=0.38 kw = 0.2239755256055865 pf=0.92 status=variable vmaxpu=1.5 vminpu=0.92 daily="RES_2_DU" 
New "Load.BT_14890_70_M2" bus1="UC14890.1.2.3.4" phases=3 conn=delta model=3 kv=0.38 kw = 0.2239755256055865 pf=0.92 status=variable vmaxpu=1.5 vminpu=0.92 daily="RES_2_DU"
 
New "Load.BT_14890_71_M1" bus1="UC14890.1.2.3.4" phases=3 conn=delta model=2 kv=0.38 kw = 0.2658171073121246 pf=0.92 status=variable vmaxpu=1.5 vminpu=0.92 daily="RES_2_DU" 
New "Load.BT_14890_71_M2" bus1="UC14890.1.2.3.4" phases=3 conn=delta model=3 kv=0.38 kw = 0.2658171073121246 pf=0.92 status=variable vmaxpu=1.5 vminpu=0.92 daily="RES_2_DU"
 
New "Load.BT_15137_72_M1" bus1="UC15137.1.2.3.4" phases=3 conn=delta model=2 kv=0.38 kw = 2.7104328456844113 pf=0.92 status=variable vmaxpu=1.5 vminpu=0.92 daily="IND_1_DU" 
New "Load.BT_15137_72_M2" bus1="UC15137.1.2.3.4" phases=3 conn=delta model=3 kv=0.38 kw = 2.7104328456844113 pf=0.92 status=variable vmaxpu=1.5 vminpu=0.92 daily="IND_1_DU"
 
New "Load.BT_7113_73_M1" bus1="UC7113.1.4" phases=1 conn=delta model=2 kv=0.22 kw = 0.3027361499943642 pf=0.92 status=variable vmaxpu=1.5 vminpu=0.92 daily="RES_2_DU" 
New "Load.BT_7113_73_M2" bus1="UC7113.1.4" phases=1 conn=delta model=3 kv=0.22 kw = 0.3027361499943642 pf=0.92 status=variable vmaxpu=1.5 vminpu=0.92 daily="RES_2_DU"
 
New "Load.BT_9718_74_M1" bus1="UC9718.1.4" phases=1 conn=delta model=2 kv=0.22 kw = 0.1452149012168088 pf=0.92 status=variable vmaxpu=1.5 vminpu=0.92 daily="RES_2_DU" 
New "Load.BT_9718_74_M2" bus1="UC9718.1.4" phases=1 conn=delta model=3 kv=0.22 kw = 0.1452149012168088 pf=0.92 status=variable vmaxpu=1.5 vminpu=0.92 daily="RES_2_DU"
 
New "Load.BT_10594_76_M1" bus1="UC10594.3.1.4" phases=2 conn=delta model=2 kv=0.38 kw = 0.20488747392283976 pf=0.92 status=variable vmaxpu=1.5 vminpu=0.92 daily="RES_11_DU" 
New "Load.BT_10594_76_M2" bus1="UC10594.3.1.4" phases=2 conn=delta model=3 kv=0.38 kw = 0.20488747392283976 pf=0.92 status=variable vmaxpu=1.5 vminpu=0.92 daily="RES_11_DU"
 
New "Load.BT_15149_77_M1" bus1="UC15149.1.2.4" phases=2 conn=delta model=2 kv=0.38 kw = 0.2510494902392288 pf=0.92 status=variable vmaxpu=1.5 vminpu=0.92 daily="RES_2_DU" 
New "Load.BT_15149_77_M2" bus1="UC15149.1.2.4" phases=2 conn=delta model=3 kv=0.38 kw = 0.2510494902392288 pf=0.92 status=variable vmaxpu=1.5 vminpu=0.92 daily="RES_2_DU"
 
New "Load.BT_13667_78_M1" bus1="UC13667.1.2.3.4" phases=3 conn=delta model=2 kv=0.38 kw = 0.5381710646014393 pf=0.92 status=variable vmaxpu=1.5 vminpu=0.92 daily="RES_7_DU" 
New "Load.BT_13667_78_M2" bus1="UC13667.1.2.3.4" phases=3 conn=delta model=3 kv=0.38 kw = 0.5381710646014393 pf=0.92 status=variable vmaxpu=1.5 vminpu=0.92 daily="RES_7_DU"
 
New "Load.BT_15154_79_M1" bus1="UC15154.3.4" phases=1 conn=delta model=2 kv=0.22 kw = 0.6339465511395732 pf=0.92 status=variable vmaxpu=1.5 vminpu=0.92 daily="RES_1_DU" 
New "Load.BT_15154_79_M2" bus1="UC15154.3.4" phases=1 conn=delta model=3 kv=0.22 kw = 0.6339465511395732 pf=0.92 status=variable vmaxpu=1.5 vminpu=0.92 daily="RES_1_DU"
 
New "Load.BT_15150_80_M1" bus1="UC15150.1.2.3.4" phases=3 conn=delta model=2 kv=0.38 kw = 0.5980884914522805 pf=0.92 status=variable vmaxpu=1.5 vminpu=0.92 daily="RES_2_DU" 
New "Load.BT_15150_80_M2" bus1="UC15150.1.2.3.4" phases=3 conn=delta model=3 kv=0.38 kw = 0.5980884914522805 pf=0.92 status=variable vmaxpu=1.5 vminpu=0.92 daily="RES_2_DU"
 
New "Load.BT_14783_82_M1" bus1="UC14783.1.2.3.4" phases=3 conn=delta model=2 kv=0.38 kw = 0.19936283048409348 pf=0.92 status=variable vmaxpu=1.5 vminpu=0.92 daily="RES_2_DU" 
New "Load.BT_14783_82_M2" bus1="UC14783.1.2.3.4" phases=3 conn=delta model=3 kv=0.38 kw = 0.19936283048409348 pf=0.92 status=variable vmaxpu=1.5 vminpu=0.92 daily="RES_2_DU"
 
New "Load.BT_10551_83_M1" bus1="UC10551.2.4" phases=1 conn=delta model=2 kv=0.22 kw = 0.3195492712558051 pf=0.92 status=variable vmaxpu=1.5 vminpu=0.92 daily="RES_11_DU" 
New "Load.BT_10551_83_M2" bus1="UC10551.2.4" phases=1 conn=delta model=3 kv=0.22 kw = 0.3195492712558051 pf=0.92 status=variable vmaxpu=1.5 vminpu=0.92 daily="RES_11_DU"
 
New "Load.BT_15130_85_M1" bus1="UC15130.3.4" phases=1 conn=delta model=2 kv=0.22 kw = 0.02168346276547529 pf=0.92 status=variable vmaxpu=1.5 vminpu=0.92 daily="COM_1_DU" 
New "Load.BT_15130_85_M2" bus1="UC15130.3.4" phases=1 conn=delta model=3 kv=0.22 kw = 0.02168346276547529 pf=0.92 status=variable vmaxpu=1.5 vminpu=0.92 daily="COM_1_DU"
 
New "Load.BT_11345_91_M1" bus1="UC11345.3.4" phases=1 conn=delta model=2 kv=0.22 kw = 0.13851633473747949 pf=0.92 status=variable vmaxpu=1.5 vminpu=0.92 daily="RES_8_DU" 
New "Load.BT_11345_91_M2" bus1="UC11345.3.4" phases=1 conn=delta model=3 kv=0.22 kw = 0.13851633473747949 pf=0.92 status=variable vmaxpu=1.5 vminpu=0.92 daily="RES_8_DU"
 
New "Load.BT_1871_94_M1" bus1="UC1871.2.4" phases=1 conn=delta model=2 kv=0.22 kw = 0.3081408459115359 pf=0.92 status=variable vmaxpu=1.5 vminpu=0.92 daily="RES_13_DU" 
New "Load.BT_1871_94_M2" bus1="UC1871.2.4" phases=1 conn=delta model=3 kv=0.22 kw = 0.3081408459115359 pf=0.92 status=variable vmaxpu=1.5 vminpu=0.92 daily="RES_13_DU"
 
New "Load.BT_15581_97_M1" bus1="UC15581.1.2.3.4" phases=3 conn=delta model=2 kv=0.38 kw = 0.37574002273051105 pf=0.92 status=variable vmaxpu=1.5 vminpu=0.92 daily="RES_3_DU" 
New "Load.BT_15581_97_M2" bus1="UC15581.1.2.3.4" phases=3 conn=delta model=3 kv=0.38 kw = 0.37574002273051105 pf=0.92 status=variable vmaxpu=1.5 vminpu=0.92 daily="RES_3_DU"
 
New "Load.BT_14653_98_M1" bus1="UC14653.1.2.3.4" phases=3 conn=delta model=2 kv=0.38 kw = 0.8544225174419839 pf=0.92 status=variable vmaxpu=1.5 vminpu=0.92 daily="RES_3_DU" 
New "Load.BT_14653_98_M2" bus1="UC14653.1.2.3.4" phases=3 conn=delta model=3 kv=0.38 kw = 0.8544225174419839 pf=0.92 status=variable vmaxpu=1.5 vminpu=0.92 daily="RES_3_DU"
 
New "Load.BT_8216_99_M1" bus1="UC8216.3.4" phases=1 conn=delta model=2 kv=0.22 kw = 0.3319894721386022 pf=0.92 status=variable vmaxpu=1.5 vminpu=0.92 daily="RES_3_DU" 
New "Load.BT_8216_99_M2" bus1="UC8216.3.4" phases=1 conn=delta model=3 kv=0.22 kw = 0.3319894721386022 pf=0.92 status=variable vmaxpu=1.5 vminpu=0.92 daily="RES_3_DU"
 
New "Load.BT_16125_100_M1" bus1="UC16125.1.2.3.4" phases=3 conn=delta model=2 kv=0.38 kw = 0.0896951774335732 pf=0.92 status=variable vmaxpu=1.5 vminpu=0.92 daily="RES_7_DU" 
New "Load.BT_16125_100_M2" bus1="UC16125.1.2.3.4" phases=3 conn=delta model=3 kv=0.38 kw = 0.0896951774335732 pf=0.92 status=variable vmaxpu=1.5 vminpu=0.92 daily="RES_7_DU"
 
New "Load.BT_16120_101_M1" bus1="UC16120.1.2.3.4" phases=3 conn=delta model=2 kv=0.38 kw = 3.2684234853955414 pf=0.92 status=variable vmaxpu=1.5 vminpu=0.92 daily="RES_3_DU" 
New "Load.BT_16120_101_M2" bus1="UC16120.1.2.3.4" phases=3 conn=delta model=3 kv=0.38 kw = 3.2684234853955414 pf=0.92 status=variable vmaxpu=1.5 vminpu=0.92 daily="RES_3_DU"
 
New "Load.BT_16117_104_M1" bus1="UC16117.1.4" phases=1 conn=delta model=2 kv=0.22 kw = 0.6382433262819639 pf=0.92 status=variable vmaxpu=1.5 vminpu=0.92 daily="RES_3_DU" 
New "Load.BT_16117_104_M2" bus1="UC16117.1.4" phases=1 conn=delta model=3 kv=0.22 kw = 0.6382433262819639 pf=0.92 status=variable vmaxpu=1.5 vminpu=0.92 daily="RES_3_DU"
 
New "Load.BT_2901_106_M1" bus1="UC2901.2.4" phases=1 conn=delta model=2 kv=0.22 kw = 0.8286868994467435 pf=0.92 status=variable vmaxpu=1.5 vminpu=0.92 daily="RES_3_DU" 
New "Load.BT_2901_106_M2" bus1="UC2901.2.4" phases=1 conn=delta model=3 kv=0.22 kw = 0.8286868994467435 pf=0.92 status=variable vmaxpu=1.5 vminpu=0.92 daily="RES_3_DU"
 
New "Load.BT_8431_107_M1" bus1="UC8431.2.4" phases=1 conn=delta model=2 kv=0.22 kw = 0.12610452817667836 pf=0.92 status=variable vmaxpu=1.5 vminpu=0.92 daily="RES_3_DU" 
New "Load.BT_8431_107_M2" bus1="UC8431.2.4" phases=1 conn=delta model=3 kv=0.22 kw = 0.12610452817667836 pf=0.92 status=variable vmaxpu=1.5 vminpu=0.92 daily="RES_3_DU"
 
New "Load.BT_16128_108_M1" bus1="UC16128.1.4" phases=1 conn=delta model=2 kv=0.22 kw = 0.04164418952273042 pf=0.92 status=variable vmaxpu=1.5 vminpu=0.92 daily="RES_7_DU" 
New "Load.BT_16128_108_M2" bus1="UC16128.1.4" phases=1 conn=delta model=3 kv=0.22 kw = 0.04164418952273042 pf=0.92 status=variable vmaxpu=1.5 vminpu=0.92 daily="RES_7_DU"
 
New "Load.BT_15685_113_M1" bus1="UC15685.1.2.3.4" phases=3 conn=delta model=2 kv=0.38 kw = 0.09924354111890613 pf=0.92 status=variable vmaxpu=1.5 vminpu=0.92 daily="COM_1_DU" 
New "Load.BT_15685_113_M2" bus1="UC15685.1.2.3.4" phases=3 conn=delta model=3 kv=0.38 kw = 0.09924354111890613 pf=0.92 status=variable vmaxpu=1.5 vminpu=0.92 daily="COM_1_DU"
 
New "Load.BT_10153_115_M1" bus1="UC10153.2.4" phases=1 conn=delta model=2 kv=0.22 kw = 0.35442280974949947 pf=0.92 status=variable vmaxpu=1.5 vminpu=0.92 daily="RES_2_DU" 
New "Load.BT_10153_115_M2" bus1="UC10153.2.4" phases=1 conn=delta model=3 kv=0.22 kw = 0.35442280974949947 pf=0.92 status=variable vmaxpu=1.5 vminpu=0.92 daily="RES_2_DU"
 
New "Load.BT_15838_116_M1" bus1="UC15838.2.4" phases=1 conn=delta model=2 kv=0.22 kw = 0.0 pf=0.92 status=variable vmaxpu=1.5 vminpu=0.92 daily="RES_2_DU" 
New "Load.BT_15838_116_M2" bus1="UC15838.2.4" phases=1 conn=delta model=3 kv=0.22 kw = 0.0 pf=0.92 status=variable vmaxpu=1.5 vminpu=0.92 daily="RES_2_DU"
 
New "Load.BT_15839_117_M1" bus1="UC15839.2.3.4" phases=2 conn=delta model=2 kv=0.38 kw = 0.011843740225467178 pf=0.92 status=variable vmaxpu=1.5 vminpu=0.92 daily="RES_9_DU" 
New "Load.BT_15839_117_M2" bus1="UC15839.2.3.4" phases=2 conn=delta model=3 kv=0.38 kw = 0.011843740225467178 pf=0.92 status=variable vmaxpu=1.5 vminpu=0.92 daily="RES_9_DU"
 
New "Load.BT_14029_118_M1" bus1="UC14029.1.4" phases=1 conn=delta model=2 kv=0.22 kw = 0.39626439145603765 pf=0.92 status=variable vmaxpu=1.5 vminpu=0.92 daily="RES_2_DU" 
New "Load.BT_14029_118_M2" bus1="UC14029.1.4" phases=1 conn=delta model=3 kv=0.22 kw = 0.39626439145603765 pf=0.92 status=variable vmaxpu=1.5 vminpu=0.92 daily="RES_2_DU"
 
New "Load.BT_15841_120_M1" bus1="UC15841.2.4" phases=1 conn=delta model=2 kv=0.22 kw = 0.006723853121698814 pf=0.92 status=variable vmaxpu=1.5 vminpu=0.92 daily="RES_4_DU" 
New "Load.BT_15841_120_M2" bus1="UC15841.2.4" phases=1 conn=delta model=3 kv=0.22 kw = 0.006723853121698814 pf=0.92 status=variable vmaxpu=1.5 vminpu=0.92 daily="RES_4_DU"
 
New "Load.BT_358_126_M1" bus1="UC358.3.1.4" phases=2 conn=delta model=2 kv=0.38 kw = 0.4520168007264464 pf=0.92 status=variable vmaxpu=1.5 vminpu=0.92 daily="COM_1_DU" 
New "Load.BT_358_126_M2" bus1="UC358.3.1.4" phases=2 conn=delta model=3 kv=0.38 kw = 0.4520168007264464 pf=0.92 status=variable vmaxpu=1.5 vminpu=0.92 daily="COM_1_DU"
 
New "Load.BT_6892_128_M1" bus1="UC6892.2.4" phases=1 conn=delta model=2 kv=0.22 kw = 0.16244378780185398 pf=0.92 status=variable vmaxpu=1.5 vminpu=0.92 daily="RES_2_DU" 
New "Load.BT_6892_128_M2" bus1="UC6892.2.4" phases=1 conn=delta model=3 kv=0.22 kw = 0.16244378780185398 pf=0.92 status=variable vmaxpu=1.5 vminpu=0.92 daily="RES_2_DU"
 
New "Load.BT_14783_129_M1" bus1="UC14783.1.2.3.4" phases=3 conn=delta model=2 kv=0.38 kw = 0.16490505731400323 pf=0.92 status=variable vmaxpu=1.5 vminpu=0.92 daily="RES_2_DU" 
New "Load.BT_14783_129_M2" bus1="UC14783.1.2.3.4" phases=3 conn=delta model=3 kv=0.38 kw = 0.16490505731400323 pf=0.92 status=variable vmaxpu=1.5 vminpu=0.92 daily="RES_2_DU"
 
New "Load.BT_15490_130_M1" bus1="UC15490.2.4" phases=1 conn=delta model=2 kv=0.22 kw = 0.39626439145603765 pf=0.92 status=variable vmaxpu=1.5 vminpu=0.92 daily="RES_2_DU" 
New "Load.BT_15490_130_M2" bus1="UC15490.2.4" phases=1 conn=delta model=3 kv=0.22 kw = 0.39626439145603765 pf=0.92 status=variable vmaxpu=1.5 vminpu=0.92 daily="RES_2_DU"
 
New "Load.BT_15492_131_M1" bus1="UC15492.1.2.3.4" phases=3 conn=delta model=2 kv=0.38 kw = 0.051686659755135346 pf=0.92 status=variable vmaxpu=1.5 vminpu=0.92 daily="RES_2_DU" 
New "Load.BT_15492_131_M2" bus1="UC15492.1.2.3.4" phases=3 conn=delta model=3 kv=0.38 kw = 0.051686659755135346 pf=0.92 status=variable vmaxpu=1.5 vminpu=0.92 daily="RES_2_DU"
 
New "Load.BT_15495_133_M1" bus1="UC15495.1.2.3.4" phases=3 conn=delta model=2 kv=0.38 kw = 0.12092700388438142 pf=0.92 status=variable vmaxpu=1.5 vminpu=0.92 daily="COM_1_DU" 
New "Load.BT_15495_133_M2" bus1="UC15495.1.2.3.4" phases=3 conn=delta model=3 kv=0.38 kw = 0.12092700388438142 pf=0.92 status=variable vmaxpu=1.5 vminpu=0.92 daily="COM_1_DU"
 
New "Load.BT_15493_134_M1" bus1="UC15493.2.4" phases=1 conn=delta model=2 kv=0.22 kw = 0.37411296584669396 pf=0.92 status=variable vmaxpu=1.5 vminpu=0.92 daily="RES_2_DU" 
New "Load.BT_15493_134_M2" bus1="UC15493.2.4" phases=1 conn=delta model=3 kv=0.22 kw = 0.37411296584669396 pf=0.92 status=variable vmaxpu=1.5 vminpu=0.92 daily="RES_2_DU"
 
New "Load.BT_15496_135_M1" bus1="UC15496.3.4" phases=1 conn=delta model=2 kv=0.38 kw = 0.004922539024298605 pf=0.92 status=variable vmaxpu=1.5 vminpu=0.92 daily="RES_2_DU" 
New "Load.BT_15496_135_M2" bus1="UC15496.3.4" phases=1 conn=delta model=3 kv=0.38 kw = 0.004922539024298605 pf=0.92 status=variable vmaxpu=1.5 vminpu=0.92 daily="RES_2_DU"
 
New "Load.BT_14400_138_M1" bus1="UC14400.1.4" phases=1 conn=delta model=2 kv=0.22 kw = 0.21905298658128788 pf=0.92 status=variable vmaxpu=1.5 vminpu=0.92 daily="RES_2_DU" 
New "Load.BT_14400_138_M2" bus1="UC14400.1.4" phases=1 conn=delta model=3 kv=0.22 kw = 0.21905298658128788 pf=0.92 status=variable vmaxpu=1.5 vminpu=0.92 daily="RES_2_DU"
 
New "Load.BT_6077_139_M1" bus1="UC6077.1.4" phases=1 conn=delta model=2 kv=0.22 kw = 0.3618066182859474 pf=0.92 status=variable vmaxpu=1.5 vminpu=0.92 daily="RES_2_DU" 
New "Load.BT_6077_139_M2" bus1="UC6077.1.4" phases=1 conn=delta model=3 kv=0.22 kw = 0.3618066182859474 pf=0.92 status=variable vmaxpu=1.5 vminpu=0.92 daily="RES_2_DU"
 
New "Load.BT_7595_141_M1" bus1="UC7595.2.3.4" phases=2 conn=delta model=2 kv=0.38 kw = 0.8681211815892265 pf=0.92 status=variable vmaxpu=1.5 vminpu=0.92 daily="RES_7_DU" 
New "Load.BT_7595_141_M2" bus1="UC7595.2.3.4" phases=2 conn=delta model=3 kv=0.38 kw = 0.8681211815892265 pf=0.92 status=variable vmaxpu=1.5 vminpu=0.92 daily="RES_7_DU"
 
New "Load.BT_10551_142_M1" bus1="UC10551.3.4" phases=1 conn=delta model=2 kv=0.22 kw = 0.338346287212029 pf=0.92 status=variable vmaxpu=1.5 vminpu=0.92 daily="RES_11_DU" 
New "Load.BT_10551_142_M2" bus1="UC10551.3.4" phases=1 conn=delta model=3 kv=0.22 kw = 0.338346287212029 pf=0.92 status=variable vmaxpu=1.5 vminpu=0.92 daily="RES_11_DU"
 
New "Load.BT_8865_145_M1" bus1="UC8865.3.4" phases=1 conn=delta model=2 kv=0.22 kw = 0.16390470527209355 pf=0.92 status=variable vmaxpu=1.5 vminpu=0.92 daily="RES_13_DU" 
New "Load.BT_8865_145_M2" bus1="UC8865.3.4" phases=1 conn=delta model=3 kv=0.22 kw = 0.16390470527209355 pf=0.92 status=variable vmaxpu=1.5 vminpu=0.92 daily="RES_13_DU"
 
New "Load.BT_5847_147_M1" bus1="UC5847.2.4" phases=1 conn=delta model=2 kv=0.22 kw = 0.5710145268186381 pf=0.92 status=variable vmaxpu=1.5 vminpu=0.92 daily="RES_2_DU" 
New "Load.BT_5847_147_M2" bus1="UC5847.2.4" phases=1 conn=delta model=3 kv=0.22 kw = 0.5710145268186381 pf=0.92 status=variable vmaxpu=1.5 vminpu=0.92 daily="RES_2_DU"
 
New "Load.BT_8287_148_M1" bus1="UC8287.2.4" phases=1 conn=delta model=2 kv=0.22 kw = 0.3302558175049313 pf=0.92 status=variable vmaxpu=1.5 vminpu=0.92 daily="COM_1_DU" 
New "Load.BT_8287_148_M2" bus1="UC8287.2.4" phases=1 conn=delta model=3 kv=0.22 kw = 0.3302558175049313 pf=0.92 status=variable vmaxpu=1.5 vminpu=0.92 daily="COM_1_DU"
 
New "Load.BT_14783_149_M1" bus1="UC14783.1.2.3.4" phases=3 conn=delta model=2 kv=0.38 kw = 0.19936283048409348 pf=0.92 status=variable vmaxpu=1.5 vminpu=0.92 daily="RES_2_DU" 
New "Load.BT_14783_149_M2" bus1="UC14783.1.2.3.4" phases=3 conn=delta model=3 kv=0.38 kw = 0.19936283048409348 pf=0.92 status=variable vmaxpu=1.5 vminpu=0.92 daily="RES_2_DU"
 
New "Load.BT_8105_150_M1" bus1="UC8105.2.4" phases=1 conn=delta model=2 kv=0.22 kw = 0.03502713215961393 pf=0.92 status=variable vmaxpu=1.5 vminpu=0.92 daily="COM_1_DU" 
New "Load.BT_8105_150_M2" bus1="UC8105.2.4" phases=1 conn=delta model=3 kv=0.22 kw = 0.03502713215961393 pf=0.92 status=variable vmaxpu=1.5 vminpu=0.92 daily="COM_1_DU"
 
New "Load.BT_14783_151_M1" bus1="UC14783.1.2.3.4" phases=3 conn=delta model=2 kv=0.38 kw = 0.544632102857604 pf=0.92 status=variable vmaxpu=1.5 vminpu=0.92 daily="RES_4_DU" 
New "Load.BT_14783_151_M2" bus1="UC14783.1.2.3.4" phases=3 conn=delta model=3 kv=0.38 kw = 0.544632102857604 pf=0.92 status=variable vmaxpu=1.5 vminpu=0.92 daily="RES_4_DU"
 
New "Load.BT_11184_154_M1" bus1="UC11184.3.4" phases=1 conn=delta model=2 kv=0.22 kw = 0.2236844898790636 pf=0.92 status=variable vmaxpu=1.5 vminpu=0.92 daily="RES_11_DU" 
New "Load.BT_11184_154_M2" bus1="UC11184.3.4" phases=1 conn=delta model=3 kv=0.22 kw = 0.2236844898790636 pf=0.92 status=variable vmaxpu=1.5 vminpu=0.92 daily="RES_11_DU"
 
New "Load.BT_14890_155_M1" bus1="UC14890.1.2.3.4" phases=3 conn=delta model=2 kv=0.38 kw = 0.2818991290769444 pf=0.92 status=variable vmaxpu=1.5 vminpu=0.92 daily="RES_7_DU" 
New "Load.BT_14890_155_M2" bus1="UC14890.1.2.3.4" phases=3 conn=delta model=3 kv=0.38 kw = 0.2818991290769444 pf=0.92 status=variable vmaxpu=1.5 vminpu=0.92 daily="RES_7_DU"
 
New "Load.BT_15109_157_M1" bus1="UC15109.1.4" phases=1 conn=delta model=2 kv=0.22 kw = 0.44749168315734583 pf=0.92 status=variable vmaxpu=1.5 vminpu=0.92 daily="RES_1_DU" 
New "Load.BT_15109_157_M2" bus1="UC15109.1.4" phases=1 conn=delta model=3 kv=0.22 kw = 0.44749168315734583 pf=0.92 status=variable vmaxpu=1.5 vminpu=0.92 daily="RES_1_DU"
 
New "Load.BT_10549_159_M1" bus1="UC10549.2.4" phases=1 conn=delta model=2 kv=0.22 kw = 0.0025019380114009947 pf=0.92 status=variable vmaxpu=1.5 vminpu=0.92 daily="COM_1_DU" 
New "Load.BT_10549_159_M2" bus1="UC10549.2.4" phases=1 conn=delta model=3 kv=0.22 kw = 0.0025019380114009947 pf=0.92 status=variable vmaxpu=1.5 vminpu=0.92 daily="COM_1_DU"
 
New "Load.BT_15090_162_M1" bus1="UC15090.3.4" phases=1 conn=delta model=2 kv=0.22 kw = 0.46066756211480464 pf=0.92 status=variable vmaxpu=1.5 vminpu=0.92 daily="RES_3_DU" 
New "Load.BT_15090_162_M2" bus1="UC15090.3.4" phases=1 conn=delta model=3 kv=0.22 kw = 0.46066756211480464 pf=0.92 status=variable vmaxpu=1.5 vminpu=0.92 daily="RES_3_DU"
 
New "Load.BT_11074_165_M1" bus1="UC11074.2.4" phases=1 conn=delta model=2 kv=0.22 kw = 0.09007466298334169 pf=0.92 status=variable vmaxpu=1.5 vminpu=0.92 daily="RES_3_DU" 
New "Load.BT_11074_165_M2" bus1="UC11074.2.4" phases=1 conn=delta model=3 kv=0.22 kw = 0.09007466298334169 pf=0.92 status=variable vmaxpu=1.5 vminpu=0.92 daily="RES_3_DU"
 
New "Load.BT_15673_170_M1" bus1="UC15673.2.3.4" phases=2 conn=delta model=2 kv=0.38 kw = 0.640816888081488 pf=0.92 status=variable vmaxpu=1.5 vminpu=0.92 daily="RES_3_DU" 
New "Load.BT_15673_170_M2" bus1="UC15673.2.3.4" phases=2 conn=delta model=3 kv=0.38 kw = 0.640816888081488 pf=0.92 status=variable vmaxpu=1.5 vminpu=0.92 daily="RES_3_DU"
 
New "Load.BT_14821_172_M1" bus1="UC14821.3.4" phases=1 conn=delta model=2 kv=0.22 kw = 0.22132631475906814 pf=0.92 status=variable vmaxpu=1.5 vminpu=0.92 daily="RES_3_DU" 
New "Load.BT_14821_172_M2" bus1="UC14821.3.4" phases=1 conn=delta model=3 kv=0.22 kw = 0.22132631475906814 pf=0.92 status=variable vmaxpu=1.5 vminpu=0.92 daily="RES_3_DU"
 
New "Load.BT_12804_173_M1" bus1="UC12804.1.4" phases=1 conn=delta model=2 kv=0.22 kw = 0.22389987655859217 pf=0.92 status=variable vmaxpu=1.5 vminpu=0.92 daily="RES_3_DU" 
New "Load.BT_12804_173_M2" bus1="UC12804.1.4" phases=1 conn=delta model=3 kv=0.22 kw = 0.22389987655859217 pf=0.92 status=variable vmaxpu=1.5 vminpu=0.92 daily="RES_3_DU"
 
New "Load.BT_11814_175_M1" bus1="UC11814.2.4" phases=1 conn=delta model=2 kv=0.22 kw = 0.2144891407721136 pf=0.92 status=variable vmaxpu=1.5 vminpu=0.92 daily="RES_6_DU" 
New "Load.BT_11814_175_M2" bus1="UC11814.2.4" phases=1 conn=delta model=3 kv=0.22 kw = 0.2144891407721136 pf=0.92 status=variable vmaxpu=1.5 vminpu=0.92 daily="RES_6_DU"
 
New "Load.BT_15821_176_M1" bus1="UC15821.1.2.3.4" phases=3 conn=delta model=2 kv=0.38 kw = 0.5340954841363985 pf=0.92 status=variable vmaxpu=1.5 vminpu=0.92 daily="RES_2_DU" 
New "Load.BT_15821_176_M2" bus1="UC15821.1.2.3.4" phases=3 conn=delta model=3 kv=0.38 kw = 0.5340954841363985 pf=0.92 status=variable vmaxpu=1.5 vminpu=0.92 daily="RES_2_DU"
 
New "Load.BT_7495_177_M1" bus1="UC7495.2.4" phases=1 conn=delta model=2 kv=0.22 kw = 0.34693540424760466 pf=0.92 status=variable vmaxpu=1.5 vminpu=0.92 daily="COM_1_DU" 
New "Load.BT_7495_177_M2" bus1="UC7495.2.4" phases=1 conn=delta model=3 kv=0.22 kw = 0.34693540424760466 pf=0.92 status=variable vmaxpu=1.5 vminpu=0.92 daily="COM_1_DU"
 
New "Load.BT_5102_178_M1" bus1="UC5102.3.4" phases=1 conn=delta model=2 kv=0.22 kw = 0.2167709401420297 pf=0.92 status=variable vmaxpu=1.5 vminpu=0.92 daily="RES_6_DU" 
New "Load.BT_5102_178_M2" bus1="UC5102.3.4" phases=1 conn=delta model=3 kv=0.22 kw = 0.2167709401420297 pf=0.92 status=variable vmaxpu=1.5 vminpu=0.92 daily="RES_6_DU"
 
New "Load.BT_1753_179_M1" bus1="UC1753.3.4" phases=1 conn=delta model=2 kv=0.22 kw = 0.05660919877943395 pf=0.92 status=variable vmaxpu=1.5 vminpu=0.92 daily="RES_2_DU" 
New "Load.BT_1753_179_M2" bus1="UC1753.3.4" phases=1 conn=delta model=3 kv=0.22 kw = 0.05660919877943395 pf=0.92 status=variable vmaxpu=1.5 vminpu=0.92 daily="RES_2_DU"
 
New "Load.BT_11184_183_M1" bus1="UC11184.3.4" phases=1 conn=delta model=2 kv=0.22 kw = 0.06277182319497604 pf=0.92 status=variable vmaxpu=1.5 vminpu=0.92 daily="RES_9_DU" 
New "Load.BT_11184_183_M2" bus1="UC11184.3.4" phases=1 conn=delta model=3 kv=0.22 kw = 0.06277182319497604 pf=0.92 status=variable vmaxpu=1.5 vminpu=0.92 daily="RES_9_DU"
 
New "Load.BT_15510_185_M1" bus1="UC15510.1.2.3.4" phases=3 conn=delta model=2 kv=0.38 kw = 0.004726989228030725 pf=0.92 status=variable vmaxpu=1.5 vminpu=0.92 daily="COM_12_DU" 
New "Load.BT_15510_185_M2" bus1="UC15510.1.2.3.4" phases=3 conn=delta model=3 kv=0.38 kw = 0.004726989228030725 pf=0.92 status=variable vmaxpu=1.5 vminpu=0.92 daily="COM_12_DU"
 
New "Load.BT_15793_186_M1" bus1="UC15793.1.2.3.4" phases=3 conn=delta model=2 kv=0.38 kw = 0.025853359451143615 pf=0.92 status=variable vmaxpu=1.5 vminpu=0.92 daily="COM_1_DU" 
New "Load.BT_15793_186_M2" bus1="UC15793.1.2.3.4" phases=3 conn=delta model=3 kv=0.38 kw = 0.025853359451143615 pf=0.92 status=variable vmaxpu=1.5 vminpu=0.92 daily="COM_1_DU"
 
New "Load.BT_15796_188_M1" bus1="UC15796.3.4" phases=1 conn=delta model=2 kv=0.22 kw = 0.13783109268036095 pf=0.92 status=variable vmaxpu=1.5 vminpu=0.92 daily="RES_2_DU" 
New "Load.BT_15796_188_M2" bus1="UC15796.3.4" phases=1 conn=delta model=3 kv=0.22 kw = 0.13783109268036095 pf=0.92 status=variable vmaxpu=1.5 vminpu=0.92 daily="RES_2_DU"
 
New "Load.BT_15798_190_M1" bus1="UC15798.1.2.3.4" phases=3 conn=delta model=2 kv=0.38 kw = 0.015660790711073888 pf=0.92 status=variable vmaxpu=1.5 vminpu=0.92 daily="RES_12_DU" 
New "Load.BT_15798_190_M2" bus1="UC15798.1.2.3.4" phases=3 conn=delta model=3 kv=0.38 kw = 0.015660790711073888 pf=0.92 status=variable vmaxpu=1.5 vminpu=0.92 daily="RES_12_DU"
 
New "Load.BT_10578_191_M1" bus1="UC10578.1.4" phases=1 conn=delta model=2 kv=0.22 kw = 0.0928985766276294 pf=0.92 status=variable vmaxpu=1.5 vminpu=0.92 daily="RES_7_DU" 
New "Load.BT_10578_191_M2" bus1="UC10578.1.4" phases=1 conn=delta model=3 kv=0.22 kw = 0.0928985766276294 pf=0.92 status=variable vmaxpu=1.5 vminpu=0.92 daily="RES_7_DU"
 
New "Load.BT_9738_192_M1" bus1="UC9738.1.4" phases=1 conn=delta model=2 kv=0.22 kw = 0.762120989551978 pf=0.92 status=variable vmaxpu=1.5 vminpu=0.92 daily="RES_6_DU" 
New "Load.BT_9738_192_M2" bus1="UC9738.1.4" phases=1 conn=delta model=3 kv=0.22 kw = 0.762120989551978 pf=0.92 status=variable vmaxpu=1.5 vminpu=0.92 daily="RES_6_DU"
 
New "Load.BT_6242_193_M1" bus1="UC6242.2.4" phases=1 conn=delta model=2 kv=0.22 kw = 0.09598951097382279 pf=0.92 status=variable vmaxpu=1.5 vminpu=0.92 daily="RES_2_DU" 
New "Load.BT_6242_193_M2" bus1="UC6242.2.4" phases=1 conn=delta model=3 kv=0.22 kw = 0.09598951097382279 pf=0.92 status=variable vmaxpu=1.5 vminpu=0.92 daily="RES_2_DU"
 
New "Load.BT_11814_195_M1" bus1="UC11814.2.4" phases=1 conn=delta model=2 kv=0.22 kw = 0.08527492962336368 pf=0.92 status=variable vmaxpu=1.5 vminpu=0.92 daily="RES_9_DU" 
New "Load.BT_11814_195_M2" bus1="UC11814.2.4" phases=1 conn=delta model=3 kv=0.22 kw = 0.08527492962336368 pf=0.92 status=variable vmaxpu=1.5 vminpu=0.92 daily="RES_9_DU"
 
New "Load.BT_6619_196_M1" bus1="UC6619.3.4" phases=1 conn=delta model=2 kv=0.22 kw = 0.2633558377999753 pf=0.92 status=variable vmaxpu=1.5 vminpu=0.92 daily="RES_2_DU" 
New "Load.BT_6619_196_M2" bus1="UC6619.3.4" phases=1 conn=delta model=3 kv=0.22 kw = 0.2633558377999753 pf=0.92 status=variable vmaxpu=1.5 vminpu=0.92 daily="RES_2_DU"
 
New "Load.BT_15805_197_M1" bus1="UC15805.1.4" phases=1 conn=delta model=2 kv=0.22 kw = 0.0073838085364479064 pf=0.92 status=variable vmaxpu=1.5 vminpu=0.92 daily="RES_2_DU" 
New "Load.BT_15805_197_M2" bus1="UC15805.1.4" phases=1 conn=delta model=3 kv=0.22 kw = 0.0073838085364479064 pf=0.92 status=variable vmaxpu=1.5 vminpu=0.92 daily="RES_2_DU"
 
New "Load.BT_15807_199_M1" bus1="UC15807.1.2.3.4" phases=3 conn=delta model=2 kv=0.38 kw = 15.076678456702394 pf=0.92 status=variable vmaxpu=1.5 vminpu=0.92 daily="COM_1_DU" 
New "Load.BT_15807_199_M2" bus1="UC15807.1.2.3.4" phases=3 conn=delta model=3 kv=0.38 kw = 15.076678456702394 pf=0.92 status=variable vmaxpu=1.5 vminpu=0.92 daily="COM_1_DU"
 
New "Load.BT_14335_200_M1" bus1="UC14335.2.4" phases=1 conn=delta model=2 kv=0.22 kw = 0.2658171073121246 pf=0.92 status=variable vmaxpu=1.5 vminpu=0.92 daily="RES_2_DU" 
New "Load.BT_14335_200_M2" bus1="UC14335.2.4" phases=1 conn=delta model=3 kv=0.22 kw = 0.2658171073121246 pf=0.92 status=variable vmaxpu=1.5 vminpu=0.92 daily="RES_2_DU"
 
New "Load.BT_12650_202_M1" bus1="UC12650.2.3.4" phases=2 conn=delta model=2 kv=0.38 kw = 0.387218528698211 pf=0.92 status=variable vmaxpu=1.5 vminpu=0.92 daily="RES_11_DU" 
New "Load.BT_12650_202_M2" bus1="UC12650.2.3.4" phases=2 conn=delta model=3 kv=0.38 kw = 0.387218528698211 pf=0.92 status=variable vmaxpu=1.5 vminpu=0.92 daily="RES_11_DU"
 
New "Load.BT_10383_203_M1" bus1="UC10383.2.4" phases=1 conn=delta model=2 kv=0.22 kw = 0.21318732405840918 pf=0.92 status=variable vmaxpu=1.5 vminpu=0.92 daily="RES_9_DU" 
New "Load.BT_10383_203_M2" bus1="UC10383.2.4" phases=1 conn=delta model=3 kv=0.22 kw = 0.21318732405840918 pf=0.92 status=variable vmaxpu=1.5 vminpu=0.92 daily="RES_9_DU"
 
New "Load.BT_14653_204_M1" bus1="UC14653.1.2.3.4" phases=3 conn=delta model=2 kv=0.38 kw = 0.6227011865737734 pf=0.92 status=variable vmaxpu=1.5 vminpu=0.92 daily="RES_2_DU" 
New "Load.BT_14653_204_M2" bus1="UC14653.1.2.3.4" phases=3 conn=delta model=3 kv=0.38 kw = 0.6227011865737734 pf=0.92 status=variable vmaxpu=1.5 vminpu=0.92 daily="RES_2_DU"
 
New "Load.BT_5977_205_M1" bus1="UC5977.2.4" phases=1 conn=delta model=2 kv=0.22 kw = 0.1156796670710172 pf=0.92 status=variable vmaxpu=1.5 vminpu=0.92 daily="RES_2_DU" 
New "Load.BT_5977_205_M2" bus1="UC5977.2.4" phases=1 conn=delta model=3 kv=0.22 kw = 0.1156796670710172 pf=0.92 status=variable vmaxpu=1.5 vminpu=0.92 daily="RES_2_DU"
 
New "Load.BT_14783_206_M1" bus1="UC14783.1.2.3.4" phases=3 conn=delta model=2 kv=0.38 kw = 0.2953523414579163 pf=0.92 status=variable vmaxpu=1.5 vminpu=0.92 daily="RES_2_DU" 
New "Load.BT_14783_206_M2" bus1="UC14783.1.2.3.4" phases=3 conn=delta model=3 kv=0.38 kw = 0.2953523414579163 pf=0.92 status=variable vmaxpu=1.5 vminpu=0.92 daily="RES_2_DU"
 
New "Load.BT_6236_207_M1" bus1="UC6236.1.2.3.4" phases=3 conn=delta model=2 kv=0.38 kw = 0.14928230134692602 pf=0.92 status=variable vmaxpu=1.5 vminpu=0.92 daily="COM_1_DU" 
New "Load.BT_6236_207_M2" bus1="UC6236.1.2.3.4" phases=3 conn=delta model=3 kv=0.38 kw = 0.14928230134692602 pf=0.92 status=variable vmaxpu=1.5 vminpu=0.92 daily="COM_1_DU"
 
New "Load.BT_13253_208_M1" bus1="UC13253.1.2.4" phases=2 conn=delta model=2 kv=0.38 kw = 0.2608945682878261 pf=0.92 status=variable vmaxpu=1.5 vminpu=0.92 daily="RES_2_DU" 
New "Load.BT_13253_208_M2" bus1="UC13253.1.2.4" phases=2 conn=delta model=3 kv=0.38 kw = 0.2608945682878261 pf=0.92 status=variable vmaxpu=1.5 vminpu=0.92 daily="RES_2_DU"
 
New "Load.BT_15079_209_M1" bus1="UC15079.3.4" phases=1 conn=delta model=2 kv=0.22 kw = 0.3176695696601828 pf=0.92 status=variable vmaxpu=1.5 vminpu=0.92 daily="RES_11_DU" 
New "Load.BT_15079_209_M2" bus1="UC15079.3.4" phases=1 conn=delta model=3 kv=0.22 kw = 0.3176695696601828 pf=0.92 status=variable vmaxpu=1.5 vminpu=0.92 daily="RES_11_DU"
 
New "Load.BT_2860_210_M1" bus1="UC2860.2.4" phases=1 conn=delta model=2 kv=0.22 kw = 0.3519615402373502 pf=0.92 status=variable vmaxpu=1.5 vminpu=0.92 daily="RES_2_DU" 
New "Load.BT_2860_210_M2" bus1="UC2860.2.4" phases=1 conn=delta model=3 kv=0.22 kw = 0.3519615402373502 pf=0.92 status=variable vmaxpu=1.5 vminpu=0.92 daily="RES_2_DU"
 
New "Load.BT_14783_211_M1" bus1="UC14783.1.2.3.4" phases=3 conn=delta model=2 kv=0.38 kw = 0.2565890899140724 pf=0.92 status=variable vmaxpu=1.5 vminpu=0.92 daily="RES_5_DU" 
New "Load.BT_14783_211_M2" bus1="UC14783.1.2.3.4" phases=3 conn=delta model=3 kv=0.38 kw = 0.2565890899140724 pf=0.92 status=variable vmaxpu=1.5 vminpu=0.92 daily="RES_5_DU"
 
New "Load.BT_5377_212_M1" bus1="UC5377.3.4" phases=1 conn=delta model=2 kv=0.22 kw = 0.35946210551824204 pf=0.92 status=variable vmaxpu=1.5 vminpu=0.92 daily="COM_5_DU" 
New "Load.BT_5377_212_M2" bus1="UC5377.3.4" phases=1 conn=delta model=3 kv=0.22 kw = 0.35946210551824204 pf=0.92 status=variable vmaxpu=1.5 vminpu=0.92 daily="COM_5_DU"
 
New "Load.BT_15362_213_M1" bus1="UC15362.3.1.4" phases=2 conn=delta model=2 kv=0.38 kw = 0.4246376969214679 pf=0.92 status=variable vmaxpu=1.5 vminpu=0.92 daily="RES_3_DU" 
New "Load.BT_15362_213_M2" bus1="UC15362.3.1.4" phases=2 conn=delta model=3 kv=0.38 kw = 0.4246376969214679 pf=0.92 status=variable vmaxpu=1.5 vminpu=0.92 daily="RES_3_DU"
 
New "Load.BT_15362_214_M1" bus1="UC15362.1.2.4" phases=2 conn=delta model=2 kv=0.38 kw = 0.6794203150743487 pf=0.92 status=variable vmaxpu=1.5 vminpu=0.92 daily="RES_3_DU" 
New "Load.BT_15362_214_M2" bus1="UC15362.1.2.4" phases=2 conn=delta model=3 kv=0.38 kw = 0.6794203150743487 pf=0.92 status=variable vmaxpu=1.5 vminpu=0.92 daily="RES_3_DU"
 
New "Load.BT_2835_215_M1" bus1="UC2835.3.4" phases=1 conn=delta model=2 kv=0.22 kw = 0.19559069676382765 pf=0.92 status=variable vmaxpu=1.5 vminpu=0.92 daily="RES_3_DU" 
New "Load.BT_2835_215_M2" bus1="UC2835.3.4" phases=1 conn=delta model=3 kv=0.22 kw = 0.19559069676382765 pf=0.92 status=variable vmaxpu=1.5 vminpu=0.92 daily="RES_3_DU"
 
New "Load.BT_16096_217_M1" bus1="UC16096.2.4" phases=1 conn=delta model=2 kv=0.22 kw = 0.009610197582168557 pf=0.92 status=variable vmaxpu=1.5 vminpu=0.92 daily="RES_7_DU" 
New "Load.BT_16096_217_M2" bus1="UC16096.2.4" phases=1 conn=delta model=3 kv=0.22 kw = 0.009610197582168557 pf=0.92 status=variable vmaxpu=1.5 vminpu=0.92 daily="RES_7_DU"
 
New "Load.BT_16099_218_M1" bus1="UC16099.3.4" phases=1 conn=delta model=2 kv=0.22 kw = 0.0 pf=0.92 status=variable vmaxpu=1.5 vminpu=0.92 daily="COM_1_DU" 
New "Load.BT_16099_218_M2" bus1="UC16099.3.4" phases=1 conn=delta model=3 kv=0.22 kw = 0.0 pf=0.92 status=variable vmaxpu=1.5 vminpu=0.92 daily="COM_1_DU"
 
New "Load.BT_8981_219_M1" bus1="UC8981.3.4" phases=1 conn=delta model=2 kv=0.22 kw = 0.15696656050875313 pf=0.92 status=variable vmaxpu=1.5 vminpu=0.92 daily="RES_7_DU" 
New "Load.BT_8981_219_M2" bus1="UC8981.3.4" phases=1 conn=delta model=3 kv=0.22 kw = 0.15696656050875313 pf=0.92 status=variable vmaxpu=1.5 vminpu=0.92 daily="RES_7_DU"
 
New "Load.BT_16100_220_M1" bus1="UC16100.3.4" phases=1 conn=delta model=2 kv=0.22 kw = 0.21103206756097193 pf=0.92 status=variable vmaxpu=1.5 vminpu=0.92 daily="RES_3_DU" 
New "Load.BT_16100_220_M2" bus1="UC16100.3.4" phases=1 conn=delta model=3 kv=0.22 kw = 0.21103206756097193 pf=0.92 status=variable vmaxpu=1.5 vminpu=0.92 daily="RES_3_DU"
 
New "Load.BT_16103_221_M1" bus1="UC16103.3.4" phases=1 conn=delta model=2 kv=0.22 kw = 0.19559069676382765 pf=0.92 status=variable vmaxpu=1.5 vminpu=0.92 daily="RES_3_DU" 
New "Load.BT_16103_221_M2" bus1="UC16103.3.4" phases=1 conn=delta model=3 kv=0.22 kw = 0.19559069676382765 pf=0.92 status=variable vmaxpu=1.5 vminpu=0.92 daily="RES_3_DU"
 
New "Load.BT_15510_223_M1" bus1="UC15510.1.2.4" phases=2 conn=delta model=2 kv=0.38 kw = 0.36029865193336674 pf=0.92 status=variable vmaxpu=1.5 vminpu=0.92 daily="RES_3_DU" 
New "Load.BT_15510_223_M2" bus1="UC15510.1.2.4" phases=2 conn=delta model=3 kv=0.38 kw = 0.36029865193336674 pf=0.92 status=variable vmaxpu=1.5 vminpu=0.92 daily="RES_3_DU"
 
New "Load.BT_15362_224_M1" bus1="UC15362.1.2.3.4" phases=3 conn=delta model=2 kv=0.38 kw = 0.0 pf=0.92 status=variable vmaxpu=1.5 vminpu=0.92 daily="COM_5_DU" 
New "Load.BT_15362_224_M2" bus1="UC15362.1.2.3.4" phases=3 conn=delta model=3 kv=0.38 kw = 0.0 pf=0.92 status=variable vmaxpu=1.5 vminpu=0.92 daily="COM_5_DU"
 
New "Load.BT_11074_225_M1" bus1="UC11074.3.4" phases=1 conn=delta model=2 kv=0.22 kw = 0.10989924245143703 pf=0.92 status=variable vmaxpu=1.5 vminpu=0.92 daily="COM_5_DU" 
New "Load.BT_11074_225_M2" bus1="UC11074.3.4" phases=1 conn=delta model=3 kv=0.22 kw = 0.10989924245143703 pf=0.92 status=variable vmaxpu=1.5 vminpu=0.92 daily="COM_5_DU"
 
New "Load.BT_16080_226_M1" bus1="UC16080.2.4" phases=1 conn=delta model=2 kv=0.22 kw = 0.22423794358393304 pf=0.92 status=variable vmaxpu=1.5 vminpu=0.92 daily="RES_7_DU" 
New "Load.BT_16080_226_M2" bus1="UC16080.2.4" phases=1 conn=delta model=3 kv=0.22 kw = 0.22423794358393304 pf=0.92 status=variable vmaxpu=1.5 vminpu=0.92 daily="RES_7_DU"
 
New "Load.BT_15581_227_M1" bus1="UC15581.1.2.3.4" phases=3 conn=delta model=2 kv=0.38 kw = 0.1852964495657315 pf=0.92 status=variable vmaxpu=1.5 vminpu=0.92 daily="RES_3_DU" 
New "Load.BT_15581_227_M2" bus1="UC15581.1.2.3.4" phases=3 conn=delta model=3 kv=0.38 kw = 0.1852964495657315 pf=0.92 status=variable vmaxpu=1.5 vminpu=0.92 daily="RES_3_DU"
 
New "Load.BT_6951_228_M1" bus1="UC6951.3.4" phases=1 conn=delta model=2 kv=0.22 kw = 0.006406798388112373 pf=0.92 status=variable vmaxpu=1.5 vminpu=0.92 daily="RES_7_DU" 
New "Load.BT_6951_228_M2" bus1="UC6951.3.4" phases=1 conn=delta model=3 kv=0.22 kw = 0.006406798388112373 pf=0.92 status=variable vmaxpu=1.5 vminpu=0.92 daily="RES_7_DU"
 
New "Load.BT_11814_230_M1" bus1="UC11814.1.2.4" phases=2 conn=delta model=2 kv=0.38 kw = 0.5584629104967185 pf=0.92 status=variable vmaxpu=1.5 vminpu=0.92 daily="RES_3_DU" 
New "Load.BT_11814_230_M2" bus1="UC11814.1.2.4" phases=2 conn=delta model=3 kv=0.38 kw = 0.5584629104967185 pf=0.92 status=variable vmaxpu=1.5 vminpu=0.92 daily="RES_3_DU"
 
New "Load.BT_5368_231_M1" bus1="UC5368.1.2.3.4" phases=3 conn=delta model=2 kv=0.38 kw = 0.20073782036287574 pf=0.92 status=variable vmaxpu=1.5 vminpu=0.92 daily="RES_3_DU" 
New "Load.BT_5368_231_M2" bus1="UC5368.1.2.3.4" phases=3 conn=delta model=3 kv=0.38 kw = 0.20073782036287574 pf=0.92 status=variable vmaxpu=1.5 vminpu=0.92 daily="RES_3_DU"
 
New "Load.BT_11814_233_M1" bus1="UC11814.3.1.4" phases=2 conn=delta model=2 kv=0.38 kw = 0.11852577018007888 pf=0.92 status=variable vmaxpu=1.5 vminpu=0.92 daily="RES_7_DU" 
New "Load.BT_11814_233_M2" bus1="UC11814.3.1.4" phases=2 conn=delta model=3 kv=0.38 kw = 0.11852577018007888 pf=0.92 status=variable vmaxpu=1.5 vminpu=0.92 daily="RES_7_DU"
 
New "Load.BT_13253_235_M1" bus1="UC13253.1.2.4" phases=2 conn=delta model=2 kv=0.38 kw = 0.3448572811362225 pf=0.92 status=variable vmaxpu=1.5 vminpu=0.92 daily="RES_3_DU" 
New "Load.BT_13253_235_M2" bus1="UC13253.1.2.4" phases=2 conn=delta model=3 kv=0.38 kw = 0.3448572811362225 pf=0.92 status=variable vmaxpu=1.5 vminpu=0.92 daily="RES_3_DU"
 
New "Load.BT_15510_236_M1" bus1="UC15510.3.1.4" phases=2 conn=delta model=2 kv=0.38 kw = 0.0 pf=0.92 status=variable vmaxpu=1.5 vminpu=0.92 daily="RES_7_DU" 
New "Load.BT_15510_236_M2" bus1="UC15510.3.1.4" phases=2 conn=delta model=3 kv=0.38 kw = 0.0 pf=0.92 status=variable vmaxpu=1.5 vminpu=0.92 daily="RES_7_DU"
 
New "Load.BT_12303_237_M1" bus1="UC12303.2.4" phases=1 conn=delta model=2 kv=0.22 kw = 0.0448475887167866 pf=0.92 status=variable vmaxpu=1.5 vminpu=0.92 daily="RES_7_DU" 
New "Load.BT_12303_237_M2" bus1="UC12303.2.4" phases=1 conn=delta model=3 kv=0.22 kw = 0.0448475887167866 pf=0.92 status=variable vmaxpu=1.5 vminpu=0.92 daily="RES_7_DU"
 
New "Load.BT_12262_238_M1" bus1="UC12262.1.4" phases=1 conn=delta model=2 kv=0.22 kw = 0.012813596776224746 pf=0.92 status=variable vmaxpu=1.5 vminpu=0.92 daily="RES_7_DU" 
New "Load.BT_12262_238_M2" bus1="UC12262.1.4" phases=1 conn=delta model=3 kv=0.22 kw = 0.012813596776224746 pf=0.92 status=variable vmaxpu=1.5 vminpu=0.92 daily="RES_7_DU"
 
New "Load.BT_15769_240_M1" bus1="UC15769.2.4" phases=1 conn=delta model=2 kv=0.22 kw = 0.28796853292146835 pf=0.92 status=variable vmaxpu=1.5 vminpu=0.92 daily="RES_2_DU" 
New "Load.BT_15769_240_M2" bus1="UC15769.2.4" phases=1 conn=delta model=3 kv=0.22 kw = 0.28796853292146835 pf=0.92 status=variable vmaxpu=1.5 vminpu=0.92 daily="RES_2_DU"
 
New "Load.BT_9154_242_M1" bus1="UC9154.3.4" phases=1 conn=delta model=2 kv=0.22 kw = 0.33776163153913424 pf=0.92 status=variable vmaxpu=1.5 vminpu=0.92 daily="COM_1_DU" 
New "Load.BT_9154_242_M2" bus1="UC9154.3.4" phases=1 conn=delta model=3 kv=0.22 kw = 0.33776163153913424 pf=0.92 status=variable vmaxpu=1.5 vminpu=0.92 daily="COM_1_DU"
 
New "Load.BT_15771_243_M1" bus1="UC15771.1.2.3.4" phases=3 conn=delta model=2 kv=0.38 kw = 0.37112080502448086 pf=0.92 status=variable vmaxpu=1.5 vminpu=0.92 daily="COM_1_DU" 
New "Load.BT_15771_243_M2" bus1="UC15771.1.2.3.4" phases=3 conn=delta model=3 kv=0.38 kw = 0.37112080502448086 pf=0.92 status=variable vmaxpu=1.5 vminpu=0.92 daily="COM_1_DU"
 
New "Load.BT_15774_244_M1" bus1="UC15774.1.4" phases=1 conn=delta model=2 kv=0.22 kw = 0.3224263060915586 pf=0.92 status=variable vmaxpu=1.5 vminpu=0.92 daily="RES_2_DU" 
New "Load.BT_15774_244_M2" bus1="UC15774.1.4" phases=1 conn=delta model=3 kv=0.22 kw = 0.3224263060915586 pf=0.92 status=variable vmaxpu=1.5 vminpu=0.92 daily="RES_2_DU"
 
New "Load.BT_5019_249_M1" bus1="UC5019.1.4" phases=1 conn=delta model=2 kv=0.22 kw = 0.342116462188753 pf=0.92 status=variable vmaxpu=1.5 vminpu=0.92 daily="RES_2_DU" 
New "Load.BT_5019_249_M2" bus1="UC5019.1.4" phases=1 conn=delta model=3 kv=0.22 kw = 0.342116462188753 pf=0.92 status=variable vmaxpu=1.5 vminpu=0.92 daily="RES_2_DU"
 
New "Load.BT_15445_253_M1" bus1="UC15445.3.4" phases=1 conn=delta model=2 kv=0.22 kw = 0.3224263060915586 pf=0.92 status=variable vmaxpu=1.5 vminpu=0.92 daily="RES_2_DU" 
New "Load.BT_15445_253_M2" bus1="UC15445.3.4" phases=1 conn=delta model=3 kv=0.22 kw = 0.3224263060915586 pf=0.92 status=variable vmaxpu=1.5 vminpu=0.92 daily="RES_2_DU"
 
New "Load.BT_7160_254_M1" bus1="UC7160.1.4" phases=1 conn=delta model=2 kv=0.22 kw = 0.05837855359935655 pf=0.92 status=variable vmaxpu=1.5 vminpu=0.92 daily="COM_1_DU" 
New "Load.BT_7160_254_M2" bus1="UC7160.1.4" phases=1 conn=delta model=3 kv=0.22 kw = 0.05837855359935655 pf=0.92 status=variable vmaxpu=1.5 vminpu=0.92 daily="COM_1_DU"
 
New "Load.BT_7914_257_M1" bus1="UC7914.1.4" phases=1 conn=delta model=2 kv=0.22 kw = 0.02418540077687628 pf=0.92 status=variable vmaxpu=1.5 vminpu=0.92 daily="COM_1_DU" 
New "Load.BT_7914_257_M2" bus1="UC7914.1.4" phases=1 conn=delta model=3 kv=0.22 kw = 0.02418540077687628 pf=0.92 status=variable vmaxpu=1.5 vminpu=0.92 daily="COM_1_DU"
 
New "Load.BT_15448_258_M1" bus1="UC15448.1.4" phases=1 conn=delta model=2 kv=0.22 kw = 0.06645427682803115 pf=0.92 status=variable vmaxpu=1.5 vminpu=0.92 daily="RES_2_DU" 
New "Load.BT_15448_258_M2" bus1="UC15448.1.4" phases=1 conn=delta model=3 kv=0.22 kw = 0.06645427682803115 pf=0.92 status=variable vmaxpu=1.5 vminpu=0.92 daily="RES_2_DU"
 
New "Load.BT_10064_260_M1" bus1="UC10064.3.4" phases=1 conn=delta model=2 kv=0.22 kw = 0.24248150583528744 pf=0.92 status=variable vmaxpu=1.5 vminpu=0.92 daily="RES_11_DU" 
New "Load.BT_10064_260_M2" bus1="UC10064.3.4" phases=1 conn=delta model=3 kv=0.22 kw = 0.24248150583528744 pf=0.92 status=variable vmaxpu=1.5 vminpu=0.92 daily="RES_11_DU"
 
New "Load.BT_9638_261_M1" bus1="UC9638.3.4" phases=1 conn=delta model=2 kv=0.22 kw = 0.7378285490153856 pf=0.92 status=variable vmaxpu=1.5 vminpu=0.92 daily="RES_1_DU" 
New "Load.BT_9638_261_M2" bus1="UC9638.3.4" phases=1 conn=delta model=3 kv=0.22 kw = 0.7378285490153856 pf=0.92 status=variable vmaxpu=1.5 vminpu=0.92 daily="RES_1_DU"
 
New "Load.BT_15452_262_M1" bus1="UC15452.1.2.3.4" phases=3 conn=delta model=2 kv=0.38 kw = 0.8515992512036585 pf=0.92 status=variable vmaxpu=1.5 vminpu=0.92 daily="RES_2_DU" 
New "Load.BT_15452_262_M2" bus1="UC15452.1.2.3.4" phases=3 conn=delta model=3 kv=0.38 kw = 0.8515992512036585 pf=0.92 status=variable vmaxpu=1.5 vminpu=0.92 daily="RES_2_DU"
 
New "Load.BT_15581_265_M1" bus1="UC15581.1.4" phases=1 conn=delta model=2 kv=0.22 kw = 0.15956083157049097 pf=0.92 status=variable vmaxpu=1.5 vminpu=0.92 daily="RES_3_DU" 
New "Load.BT_15581_265_M2" bus1="UC15581.1.4" phases=1 conn=delta model=3 kv=0.22 kw = 0.15956083157049097 pf=0.92 status=variable vmaxpu=1.5 vminpu=0.92 daily="RES_3_DU"
 
New "Load.BT_14783_266_M1" bus1="UC14783.1.2.3.4" phases=3 conn=delta model=2 kv=0.38 kw = 0.42721125872099197 pf=0.92 status=variable vmaxpu=1.5 vminpu=0.92 daily="RES_3_DU" 
New "Load.BT_14783_266_M2" bus1="UC14783.1.2.3.4" phases=3 conn=delta model=3 kv=0.38 kw = 0.42721125872099197 pf=0.92 status=variable vmaxpu=1.5 vminpu=0.92 daily="RES_3_DU"
 
New "Load.BT_8867_270_M1" bus1="UC8867.1.4" phases=1 conn=delta model=2 kv=0.22 kw = 0.5713307194943387 pf=0.92 status=variable vmaxpu=1.5 vminpu=0.92 daily="RES_3_DU" 
New "Load.BT_8867_270_M2" bus1="UC8867.1.4" phases=1 conn=delta model=3 kv=0.22 kw = 0.5713307194943387 pf=0.92 status=variable vmaxpu=1.5 vminpu=0.92 daily="RES_3_DU"
 
New "Load.BT_12650_273_M1" bus1="UC12650.2.3.4" phases=2 conn=delta model=2 kv=0.38 kw = 0.16657675809092168 pf=0.92 status=variable vmaxpu=1.5 vminpu=0.92 daily="RES_7_DU" 
New "Load.BT_12650_273_M2" bus1="UC12650.2.3.4" phases=2 conn=delta model=3 kv=0.38 kw = 0.16657675809092168 pf=0.92 status=variable vmaxpu=1.5 vminpu=0.92 daily="RES_7_DU"
 
New "Load.BT_16074_274_M1" bus1="UC16074.1.2.3.4" phases=3 conn=delta model=2 kv=0.38 kw = 8.194220769684568 pf=0.92 status=variable vmaxpu=1.5 vminpu=0.92 daily="RES_3_DU" 
New "Load.BT_16074_274_M2" bus1="UC16074.1.2.3.4" phases=3 conn=delta model=3 kv=0.38 kw = 8.194220769684568 pf=0.92 status=variable vmaxpu=1.5 vminpu=0.92 daily="RES_3_DU"
 
New "Load.BT_16078_276_M1" bus1="UC16078.1.2.4" phases=2 conn=delta model=2 kv=0.38 kw = 0.06727138307517991 pf=0.92 status=variable vmaxpu=1.5 vminpu=0.92 daily="RES_7_DU" 
New "Load.BT_16078_276_M2" bus1="UC16078.1.2.4" phases=2 conn=delta model=3 kv=0.38 kw = 0.06727138307517991 pf=0.92 status=variable vmaxpu=1.5 vminpu=0.92 daily="RES_7_DU"
 
New "Load.BT_15580_277_M1" bus1="UC15580.2.4" phases=1 conn=delta model=2 kv=0.22 kw = 0.21166917804483998 pf=0.92 status=variable vmaxpu=1.5 vminpu=0.92 daily="RES_2_DU" 
New "Load.BT_15580_277_M2" bus1="UC15580.2.4" phases=1 conn=delta model=3 kv=0.22 kw = 0.21166917804483998 pf=0.92 status=variable vmaxpu=1.5 vminpu=0.92 daily="RES_2_DU"
 
New "Load.BT_15707_278_M1" bus1="UC15707.1.4" phases=1 conn=delta model=2 kv=0.22 kw = 0.23382060365418372 pf=0.92 status=variable vmaxpu=1.5 vminpu=0.92 daily="RES_2_DU" 
New "Load.BT_15707_278_M2" bus1="UC15707.1.4" phases=1 conn=delta model=3 kv=0.22 kw = 0.23382060365418372 pf=0.92 status=variable vmaxpu=1.5 vminpu=0.92 daily="RES_2_DU"
 
New "Load.BT_11074_279_M1" bus1="UC11074.1.4" phases=1 conn=delta model=2 kv=0.22 kw = 0.0 pf=0.92 status=variable vmaxpu=1.5 vminpu=0.92 daily="COM_1_DU" 
New "Load.BT_11074_279_M2" bus1="UC11074.1.4" phases=1 conn=delta model=3 kv=0.22 kw = 0.0 pf=0.92 status=variable vmaxpu=1.5 vminpu=0.92 daily="COM_1_DU"
 
New "Load.BT_8981_281_M1" bus1="UC8981.2.4" phases=1 conn=delta model=2 kv=0.22 kw = 0.5414792926728464 pf=0.92 status=variable vmaxpu=1.5 vminpu=0.92 daily="RES_2_DU" 
New "Load.BT_8981_281_M2" bus1="UC8981.2.4" phases=1 conn=delta model=3 kv=0.22 kw = 0.5414792926728464 pf=0.92 status=variable vmaxpu=1.5 vminpu=0.92 daily="RES_2_DU"
 
New "Load.BT_15761_282_M1" bus1="UC15761.1.2.3.4" phases=3 conn=delta model=2 kv=0.38 kw = 0.4922539024298605 pf=0.92 status=variable vmaxpu=1.5 vminpu=0.92 daily="RES_2_DU" 
...